* RC charging circuit
V1 in 0 DC 5
R1 in out 1k
C1 out 0 1uF
.TRAN 1ms 10ms uic
.END