* RC HPF: R=1k, C=1uF  ->  fc almost equal 159.155 Hz
V1 in 0 AC 1 0
C1 in out 1u
R1 out 0 1k
.AC DEC 20 1 1e5