* Sinusoidal voltage source driving a resistor divider
.include /Users/royshulman/Projects/spicy/crates/spicy_simulate/tests/for_include.spicy
R1 in out 1k
R2 out 0 2k
.TRAN 0.001 1 uic
.END


