AC test with voltage source DC and AC
V1 out 0 DC 5 AC 1.5 45
R1 out 0 1k
.AC LIN 3 10 100
.END

