params mixing
.model mymodel r(tc1=345)
R1 n1 n0 1k ac=2 m=3 scale=4 temp=300 dtemp=10 tc1=0.1 tc2=0.01 noisy=1
* r mname ac m scale temp dtemp tc1 tc2 noisy
R2 n1 n0 2k 1 5 280 6 0.2 0.02 0
R3 n1 n0 3k 7 9 scale=10 noisy=1
R3 n1 n0 2k mymodel 1 5 
R4 n1 n0 mymodel 1 5
C1 n2 n0 1u m=2 scale=3 temp=300 dtemp=5 tc1=0.1 tc2=0.01 ic=0.5
C2 n2 n0 2u 4 5 260 3 0.2 0.02 0.1
C3 n2 n0 3u scale=10 m=1 ic=0.3
V1 n3 0 DC 5
V2 n3 n4 DC 1.2k
.op
.end

