simple current source with resistor network
I1 in 0 DC 1m
R1 in out 1k
R2 out 0 2k
.OP
.DC I1 1m 5m 1m
.END
