some subcircuits
* --- Global params ---
.param Rg=500
.param C=5n

* --- Subcircuit definition ---
.subckt LP in out R={Rg}  C=10n
.param R=2k
R1 in out {R}
C1 out 0  {C}
.ends LP

* --- Instances ---
X1 n1 n2 LP
X2 a  b  LP R=1k
X3 x  y  LP C=22n